90
O2 Zr
Zr    0.000000    0.000000    8.816139
Zr   -3.599174    6.233951    8.816139
Zr    7.198347    0.000000    8.816139
Zr    5.398760    1.038992   11.754852
Zr    5.398760    1.038992    7.346783
Zr    3.599173    4.155968   11.754852
Zr    3.599173    4.155968    7.346783
Zr    1.799587    1.038992   11.754852
Zr    1.799587    1.038992    7.346783
Zr    0.000000    4.155968   11.754852
Zr    0.000000    4.155968    7.346783
Zr    3.599173    2.077984   10.285495
Zr   -1.799587    5.194960   10.285496
Zr    1.799587    3.116976    8.816139
Zr    0.000000    2.077984   10.285496
Zr    3.599174    0.000000    8.816139
Zr    0.000000    6.233951    8.816139
Zr    1.799587    5.194960   10.285496
Zr   -1.799587    3.116976    8.816139
Zr    5.398760    3.116976    8.816139
 O    0.000000    0.000000   11.020174
 O   -3.599174    6.233951   11.020174
 O    7.198347    0.000000   11.020174
 O    0.000000    0.000000    6.612104
 O   -3.599174    6.233951    6.612104
 O    7.198347    0.000000    6.612104
 O    1.799587    5.194960    8.081461
 O    1.799587    5.194960   12.489531
 O    1.799587    1.038992    9.550816
 O    0.000000    2.077984    8.081461
 O    0.000000    2.077984   12.489531
 O    3.599173    4.155968    9.550816
 O   -1.799587    5.194960    8.081461
 O   -1.799587    5.194960   12.489531
 O    5.398760    1.038992    9.550816
 O    3.599174    0.000000   11.020174
 O    0.000000    6.233951   11.020174
 O    3.599174    0.000000    6.612104
 O    0.000000    6.233951    6.612104
 O   -1.799587    3.116976   11.020174
 O    5.398760    3.116976   11.020174
 O   -1.799587    3.116976    6.612104
 O    5.398760    3.116976    6.612104
 O    3.599174    2.077984   12.489531
 O    3.599174    2.077984    8.081461
 O    1.799587    3.116976   11.020174
 O    1.799587    3.116976    6.612104
 O    0.000000    4.155968    9.550816
Ni    0.000000    0.000000   14.000000
Ni    0.000000    0.000000   25.951151
Ni    0.000000    0.000000   19.975575
Ni    4.879037    0.000000   14.000000
Ni    4.879037    0.000000   25.951151
Ni    4.879037    0.000000   19.975575
Ni    2.439519    0.000000   14.000000
Ni    2.439519    0.000000   25.951151
Ni    2.439519    0.000000   19.975575
Ni    3.659277    0.704228   15.991859
Ni    3.659277    0.704228   21.967434
Ni    1.219759    0.704228   15.991859
Ni    1.219759    0.704228   21.967434
Ni    6.098796    0.704228   15.991859
Ni    6.098796    0.704228   21.967434
Ni    2.439518    2.816913   15.991859
Ni    2.439518    2.816913   21.967434
Ni    0.000000    2.816913   15.991859
Ni    0.000000    2.816913   21.967434
Ni    4.879036    2.816913   15.991859
Ni    4.879036    2.816913   21.967434
Ni    2.439518    1.408457   17.983717
Ni    2.439518    1.408457   23.959292
Ni   -0.000000    1.408457   17.983717
Ni   -0.000000    1.408457   23.959292
Ni    4.879037    1.408457   17.983717
Ni    4.879037    1.408457   23.959292
Ni   -1.219759    3.521142   17.983717
Ni   -1.219759    3.521142   23.959293
Ni    3.659278    3.521142   17.983717
Ni    3.659278    3.521142   23.959293
Ni    1.219759    3.521142   17.983717
Ni    1.219759    3.521142   23.959293
Ni    1.219759    2.112685   14.000000
Ni    1.219759    2.112685   25.951151
Ni    1.219759    2.112685   19.975575
Ni   -1.219759    2.112685   14.000000
Ni   -1.219759    2.112685   25.951151
Ni   -1.219759    2.112685   19.975575
Ni    3.659278    2.112685   14.000000
Ni    3.659278    2.112685   25.951151
Ni    3.659278    2.112685   19.975575
