48
O2 Zr
Zr    0.000000    0.000000    8.816139
Zr   -3.599174    6.233951    8.816139
Zr    7.198347    0.000000    8.816139
Zr    5.398760    1.038992   11.754852
Zr    5.398760    1.038992    7.346783
Zr    3.599173    4.155968   11.754852
Zr    3.599173    4.155968    7.346783
Zr    1.799587    1.038992   11.754852
Zr    1.799587    1.038992    7.346783
Zr    0.000000    4.155968   11.754852
Zr    0.000000    4.155968    7.346783
Zr    3.599173    2.077984   10.285495
Zr   -1.799587    5.194960   10.285496
Zr    1.799587    3.116976    8.816139
Zr    0.000000    2.077984   10.285496
Zr    3.599174    0.000000    8.816139
Zr    0.000000    6.233951    8.816139
Zr    1.799587    5.194960   10.285496
Zr   -1.799587    3.116976    8.816139
Zr    5.398760    3.116976    8.816139
 O    0.000000    0.000000   11.020174
 O   -3.599174    6.233951   11.020174
 O    7.198347    0.000000   11.020174
 O    0.000000    0.000000    6.612104
 O   -3.599174    6.233951    6.612104
 O    7.198347    0.000000    6.612104
 O    1.799587    5.194960    8.081461
 O    1.799587    5.194960   12.489530
 O    1.799587    1.038992    9.550817
 O    0.000000    2.077984    8.081461
 O    0.000000    2.077984   12.489530
 O    3.599173    4.155968    9.550817
 O   -1.799587    5.194960    8.081461
 O   -1.799587    5.194960   12.489530
 O    5.398760    1.038992    9.550817
 O    3.599174    0.000000   11.020174
 O    0.000000    6.233951   11.020174
 O    3.599174    0.000000    6.612104
 O    0.000000    6.233951    6.612104
 O   -1.799587    3.116976   11.020174
 O    5.398760    3.116976   11.020174
 O   -1.799587    3.116976    6.612104
 O    5.398760    3.116976    6.612104
 O    3.599174    2.077984   12.489530
 O    3.599174    2.077984    8.081461
 O    1.799587    3.116976   11.020174
 O    1.799587    3.116976    6.612104
 O    0.000000    4.155968    9.550817
