63
O2 Zr
Zr    4.591740    1.994259    1.653026
Zr    8.190912    1.994259    1.653026
Zr    8.282566    4.072243    4.591739
Zr    4.591740    4.072243    4.591739
Zr    8.282566    6.150228    7.530452
Zr    4.591740    6.150228    7.530452
Zr    6.437152    0.875895    4.591739
Zr    2.746326    0.875895    4.591739
Zr    2.792152    3.033251    7.530452
Zr    6.391326    3.033251    7.530452
Zr   10.082152    5.111235    1.653026
Zr    6.391326    5.111235    1.653026
 O    4.591740    1.994259    3.857060
 O    8.190912    1.994259    3.857060
 O    4.591740    1.994259    8.265130
 O    8.190912    1.994259    8.265130
 O    8.282566    4.072243    2.387704
 O    4.591740    4.072243    2.387704
 O    2.792152    3.033251    0.918348
 O    6.391326    3.033251    0.918348
 O    2.792152    3.033251    5.326417
 O    6.391326    3.033251    5.326417
 O    8.282566    4.072243    6.795773
 O    4.591740    4.072243    6.795773
 O    8.282566    6.150228    5.326417
 O    4.591740    6.150228    5.326417
 O   10.082152    5.111235    3.857060
 O    6.391326    5.111235    3.857060
 O    6.437152    0.875895    2.387704
 O    2.746326    0.875895    2.387704
 O    6.437152    0.875895    6.795773
 O    2.746326    0.875895    6.795773
 O   10.082152    5.111235    8.265130
 O    6.391326    5.111235    8.265130
 O    8.282566    6.150228    0.918348
 O    4.591740    6.150228    0.918348
Ni    2.777868    0.910604   -1.890642
Ni    8.862386    2.998559   -1.890642
Ni    5.217386    0.910604   -1.890642
Ni    4.011904    2.998559   -1.890642
Ni    7.656904    0.910604   -1.890642
Ni    6.451423    2.998559   -1.890642
Ni    8.862386    4.407017   -5.874358
Ni    4.011904    4.407017   -5.874358
Ni    6.451423    4.407017   -5.874358
Ni    6.422868    5.815472   -3.882500
Ni    8.862386    5.815472   -3.882500
Ni   11.301904    5.815472   -3.882500
Ni    7.642627    2.294331   -5.874358
Ni    7.642627    6.519701   -5.874358
Ni    2.792145    2.294331   -5.874358
Ni   10.082145    6.519701   -5.874358
Ni    5.231663    2.294331   -5.874358
Ni    5.231663    6.519701   -5.874358
Ni    7.642627    3.702787   -3.882500
Ni    3.997627    1.614832   -3.882500
Ni   10.082145    3.702787   -3.882500
Ni    6.437145    1.614832   -3.882500
Ni    5.231663    3.702787   -3.882500
Ni    8.876663    1.614832   -3.882500
Ni    7.642627    5.111244   -1.890642
Ni   10.082145    5.111244   -1.890642
Ni    5.231663    5.111244   -1.890642
