18
O2 Zr
Zr    0.000000    0.000000    0.000000
Zr    0.000000    2.077984    2.938713
Zr    0.000000    4.155968    5.877426
Zr    1.799587    5.194960    2.938713
Zr    1.799587    1.038992    5.877426
Zr    1.799587    3.116976    0.000000
 O    0.000000    0.000000    2.204035
 O    0.000000    0.000000    6.612104
 O    0.000000    2.077984    0.734678
 O    1.799587    1.038992    8.081461
 O    1.799587    1.038992    3.673391
 O    0.000000    2.077984    5.142748
 O    0.000000    4.155968    3.673391
 O    1.799587    3.116976    2.204035
 O    1.799587    5.194960    0.734678
 O    1.799587    5.194960    5.142748
 O    1.799587    3.116976    6.612104
 O    0.000000    4.155968    8.081461
