24
O2 Zr
Zr    0.474590    1.478053    1.478053
Zr    5.536881    1.478053    1.478053
Zr    3.005736    3.267844    3.267844
Zr    8.068027    3.267844    3.267844
 O    1.740163    1.478053    3.267844
 O    6.802454    1.478053    3.267844
 O    4.271308    1.478053    3.267844
 O    9.333600    1.478053    3.267844
 O    1.740163    3.267844    1.478053
 O    6.802454    3.267844    1.478053
 O    4.271308    3.267844    1.478053
 O    9.333600    3.267844    1.478053
Ni    0.708605    1.542835    5.253465
Ni    4.158605    1.542835    5.253465
Ni    7.608605    1.542835    5.253465
Ni    2.433605    3.267835    5.253465
Ni    5.883605    3.267835    5.253465
Ni    9.333605    3.267835    5.253465
Ni    2.433605    1.542835    6.978465
Ni    5.883605    1.542835    6.978465
Ni    9.333605    1.542835    6.978465
Ni    0.708605    3.267835    6.978465
Ni    4.158605    3.267835    6.978465
Ni    7.608605    3.267835    6.978465
