12
Ni
Ni    0.215625    0.215625    0.215625
Ni    3.665625    0.215625    0.215625
Ni    7.115625    0.215625    0.215625
Ni    1.940625    1.940625    0.215625
Ni    5.390625    1.940625    0.215625
Ni    8.840625    1.940625    0.215625
Ni    1.940625    0.215625    1.940625
Ni    5.390625    0.215625    1.940625
Ni    8.840625    0.215625    1.940625
Ni    0.215625    1.940625    1.940625
Ni    3.665625    1.940625    1.940625
Ni    7.115625    1.940625    1.940625
