46
O2 Zr
Zr    0.000000    0.000000    0.000000
Zr    0.000000    0.000000    7.198347
Zr    0.000000    5.090000    0.000000
Zr    0.000000    5.090000    7.198347
Zr    7.198347    0.000000    0.000000
Zr    7.198347    0.000000    7.198347
Zr    7.198347    5.090000    0.000000
Zr    7.198347    5.090000    7.198347
Zr    1.799587    2.545000    1.799587
Zr    5.398760    2.545000    1.799587
Zr    0.000000    0.000000    3.599174
Zr    0.000000    5.090000    3.599174
Zr    7.198347    0.000000    3.599174
Zr    7.198347    5.090000    3.599174
Zr    3.599174    0.000000    3.599174
Zr    3.599174    5.090000    3.599174
Zr    5.398760    2.545000    5.398760
Zr    1.799587    2.545000    5.398760
Zr    3.599174    0.000000    0.000000
Zr    3.599174    0.000000    7.198347
Zr    3.599174    5.090000    0.000000
Zr    3.599174    5.090000    7.198347
 O    0.000000    1.272500    1.799587
 O    7.198347    1.272500    1.799587
 O    0.000000    3.817500    5.398760
 O    7.198347    3.817500    5.398760
 O    0.000000    1.272500    5.398760
 O    7.198347    1.272500    5.398760
 O    0.000000    3.817500    1.799587
 O    7.198347    3.817500    1.799587
 O    1.799587    3.817500    0.000000
 O    1.799587    3.817500    7.198347
 O    5.398760    1.272500    0.000000
 O    5.398760    1.272500    7.198347
 O    5.398760    3.817500    0.000000
 O    5.398760    3.817500    7.198347
 O    1.799587    1.272500    0.000000
 O    1.799587    1.272500    7.198347
 O    1.799587    3.817500    3.599174
 O    1.799587    1.272500    3.599174
 O    3.599174    1.272500    1.799587
 O    3.599174    3.817500    1.799587
 O    5.398760    3.817500    3.599174
 O    5.398760    1.272500    3.599174
 O    3.599174    1.272500    5.398760
 O    3.599174    3.817500    5.398760
