27
Ni
Ni    4.850482    4.225370    0.000000
Ni   10.935000    6.313325    0.000000
Ni    7.290000    4.225370    0.000000
Ni    6.084518    6.313325    0.000000
Ni    9.729518    4.225370    0.000000
Ni    8.524037    6.313325    0.000000
Ni    7.290000    1.408457    1.991858
Ni    2.439518    1.408457    1.991858
Ni    4.879037    1.408457    1.991858
Ni    4.850482    2.816913    3.983716
Ni    7.290000    2.816913    3.983716
Ni    2.439518    2.816913    3.983716
Ni    9.715241    5.609097    1.991858
Ni    6.070241    3.521142    1.991858
Ni    4.864759    5.609097    1.991858
Ni    8.509759    3.521142    1.991858
Ni    7.304277    5.609097    1.991858
Ni    3.659277    3.521142    1.991858
Ni    6.070241    0.704228    3.983716
Ni    6.070241    4.929598    3.983716
Ni    1.219759    0.704228    3.983716
Ni    8.509759    4.929598    3.983716
Ni    3.659277    0.704228    3.983716
Ni    3.659277    4.929598    3.983716
Ni    6.070241    2.112685    0.000000
Ni    8.509759    2.112685    0.000000
Ni    3.659277    2.112685    0.000000
