27
Ni
Ni   -2.439518    4.225370    0.000000
Ni    0.000000    0.000000    0.000000
Ni    0.000000    4.225370    0.000000
Ni    2.439518    0.000000    0.000000
Ni    2.439518    4.225370    0.000000
Ni    4.879037    0.000000    0.000000
Ni    0.000000    1.408457    1.991858
Ni    2.439518    1.408457    1.991858
Ni    4.879037    1.408457    1.991858
Ni   -2.439518    2.816913   -1.991858
Ni    0.000000    2.816913   -1.991858
Ni    2.439518    2.816913   -1.991858
Ni   -1.219759   -0.704228    1.991858
Ni   -1.219759    3.521142    1.991858
Ni    1.219759   -0.704228    1.991858
Ni    1.219759    3.521142    1.991858
Ni    3.659277   -0.704228    1.991858
Ni    3.659277    3.521142    1.991858
Ni   -1.219759    0.704228   -1.991858
Ni   -1.219759    4.929598   -1.991858
Ni    1.219759    0.704228   -1.991858
Ni    1.219759    4.929598   -1.991858
Ni    3.659277    0.704228   -1.991858
Ni    3.659277    4.929598   -1.991858
Ni   -1.219759    2.112685    0.000000
Ni    1.219759    2.112685    0.000000
Ni    3.659277    2.112685    0.000000
